*KEYWORD
*TITLE
Sample problem to examine thickness offsetting                          
*CONTROL_TERMINATION
 1.200E+00         0 0.000E+00         0 0.000E+00
*CONTROL_TIMESTEP
 0.000E+00 0.000E+00         0 0.000E+00 0.000E+00         0    0
*CONTROL_SHELL
 0.000E+00         0         0         1         0         0
*CONTROL_DAMPING
         0 0.000E+00 0.000E+00 0.000E+00 0.000E+00         0 0.000E+00         0
*CONTROL_CONTACT
 0.000E+00 0.000E+00         0         0         0         0         0         0
         0         0         0
*CONTROL_OUTPUT
         0         0         0         0 0.000E+00         0
*CONTROL_ENERGY
         0         0         0         0
*DATABASE_BINARY_D3PLOT
 1.000E-03
*DATABASE_BINARY_D3THDT
 4.000E-03
*DATABASE_GLSTAT
 1.200E-03
*DATABASE_MATSUM
 1.200E-03
*DATABASE_RCFORC
 1.200E-03
*DATABASE_RBDOUT
 1.200E-03
*DATABASE_BINARY_INTFOR
 1.200E-02
*CONTROL_CPU
 0.000E+00
*MAT_PIECEWISE_LINEAR_PLASTICITY
         1 7.830E-06 2.070E+02 3.000E-01 1.210E+02 0.000E+00 0.000E+00 0.000E+00
 0.000E+00 0.000E+00 0.000E+00 0.000E+00
 0.000E+00 0.000E+00 0.000E+00 0.000E+00 0.000E+00 0.000E+00 0.000E+00 0.000E+00
 1.210E+02 2.150E+02 2.570E+02 2.870E+02 3.010E+02 3.200E+02 3.460E+02 3.780E+02
*MAT_RIGID
         2 7.830E-06 2.070E+02 3.000E-01 0.000E+00 0.000E+00 0.000E+00          
 0.000E+00 0.000E+00 0.000E+00
 0.000E+00 0.000E+00 0.000E+00 0.000E+00 0.000E+00 0.000E+00 0.000E+00 0.000E+00
*SECTION_SHELL
         1         0 0.000E+00 5.000E+00 0.000E+00 0.000E+00
 1.000E+00 1.000E+00 1.000E+00 1.000E+00 0.000E+00
*SECTION_SHELL
         2         0 0.000E+00 0.000E+00 0.000E+00 0.000E+00
 1.000E+00 1.000E+00 1.000E+00 1.000E+00 0.000E+00
*PART
 
         1         1         1         0         0
*PART
 
         2         2         2         0         0
*NODE
       1-1.000000000E+01-1.000000000E+01 0.000000000E+00       0       0
       2-7.500000000E+00-1.000000000E+01 0.000000000E+00       0       0
       3-5.000000000E+00-1.000000000E+01 0.000000000E+00       0       0
       4-2.500000000E+00-1.000000000E+01 0.000000000E+00       0       0
       5 0.000000000E+00-1.000000000E+01 0.000000000E+00       0       0
       6 2.500000000E+00-1.000000000E+01 0.000000000E+00       0       0
       7 5.000000000E+00-1.000000000E+01 0.000000000E+00       0       0
       8 7.500000000E+00-1.000000000E+01 0.000000000E+00       0       0
       9 1.000000000E+01-1.000000000E+01 0.000000000E+00       0       0
      10-1.000000000E+01-7.500000000E+00 0.000000000E+00       0       0
      11-7.500000000E+00-7.500000000E+00 0.000000000E+00       0       0
      12-5.000000000E+00-7.500000000E+00 0.000000000E+00       0       0
      13-2.500000000E+00-7.500000000E+00 0.000000000E+00       0       0
      14 0.000000000E+00-7.500000000E+00 0.000000000E+00       0       0
      15 2.500000000E+00-7.500000000E+00 0.000000000E+00       0       0
      16 5.000000000E+00-7.500000000E+00 0.000000000E+00       0       0
      17 7.500000000E+00-7.500000000E+00 0.000000000E+00       0       0
      18 1.000000000E+01-7.500000000E+00 0.000000000E+00       0       0
      19-1.000000000E+01-5.000000000E+00 0.000000000E+00       0       0
      20-7.500000000E+00-5.000000000E+00 0.000000000E+00       0       0
$ ... 431 like lines cut
*ELEMENT_SHELL
       1       1       1      10      11       2
       2       1       2      11      12       3
       3       1       3      12      13       4
       4       1       4      13      14       5
       5       1       5      14      15       6
       6       1       6      15      16       7
       7       1       7      16      17       8
       8       1       8      17      18       9
       9       1      10      19      20      11
      10       1      11      20      21      12
      11       1      12      21      22      13
      12       1      13      22      23      14
      13       1      14      23      24      15
      14       1      15      24      25      16
      15       1      16      25      26      17
      16       1      17      26      27      18
      17       1      19      28      29      20
      18       1      20      29      30      21
      19       1      21      30      31      22
      20       1      22      31      32      23
$ ... 368 like lines cut
*DEFINE_CURVE
         1         0 0.000E+00 0.000E+00 0.000E+00 0.000E+00
      0.00000000E+00      1.00000000E+01
      1.00000000E+00      1.00000000E+01
*DEFINE_VECTOR
         1 0.000E+00 0.000E+00 0.000E+00 0.000E+00 0.000E+00-1.000E+00
*BOUNDARY_PRESCRIBED_MOTION_RIGID
         2         4         0         1 1.000E+00         1
$ INTERFACE NAME: 1          $$$
*CONTACT_SURFACE_TO_SURFACE                      
         1         2         0         0         0         0         0         0
 1.000E-01 1.000E-01 0.000E+00 0.000E+00 0.000E+00         0 0.000E+00 0.000E+00
 0.000E+00 0.000E+00 0.000E+00 0.000E+00 0.000E+00 0.000E+00
*SET_SEGMENT
$
$ Slave segments, surface:   1
$
         1        64
        10         1         2        11
        19        10        11        20
        28        19        20        29
        37        28        29        38
        46        37        38        47
        55        46        47        56
        64        55        56        65
        73        64        65        74
        11         2         3        12
        20        11        12        21
        29        20        21        30
        38        29        30        39
        47        38        39        48
        56        47        48        57
        65        56        57        66
        74        65        66        75
        12         3         4        13
        21        12        13        22
        30        21        22        31
$ ... 45 like lines cut
*SET_SEGMENT
$
$ Master segments, surface:   1
$
         2       324
        82        92        93        83
        92       102       103        93
       102       112       113       103
       112       122       123       113
       122       172       173       123
       172       182       183       173
       182       192       193       183
       192       202       203       193
       202       212       213       203
        83        93        94        84
        93       103       104        94
       103       113       114       104
       113       123       124       114
       123       173       174       124
       173       183       184       174
       183       193       194       184
       193       203       204       194
       203       213       214       204
        84        94        95        85
$ ... 305 like lines cut
*END
