*KEYWORD
*CONTROL_STRUCTURED
*CONTROL_SPH                           carte de control
         0
*MAT_PIECEWISE_LINEAR_PLASTICITY
         1 8.90000-3 1.00000+5 0.3300000 180.00000 0.0000000 0.0000000 0.0000000
 0.0000000 0.0000000         0         0
 0.0000000 0.4982001 0.9982001 0.0000000 0.0000000 0.0000000 0.0000000 0.0000000
 180.00000 250.00000 280.00000 0.0000000 0.0000000 0.0000000 0.0000000 0.0000000
*MAT_ELASTIC_PLASTIC_HYDRO
         2 8.90000-3 37593.000 180.00000 0.0000000 0.0000000 0.0000000
 0.0000000 0.0000000 0.0000000 0.0000000 0.0000000 0.0000000 0.0000000 0.0000000
 0.0000000 0.0000000 0.0000000 0.0000000 0.0000000 0.0000000 0.0000000 0.0000000
 0.0000000 0.0000000 0.0000000 0.0000000 0.0000000 0.0000000 0.0000000 0.0000000
 0.0000000 0.0000000 0.0000000 0.0000000 0.0000000 0.0000000 0.0000000 0.0000000
*EOS_GRUNEISEN
         2 3958.0000 1.4970001 0.0000000 0.0000000 2.0000000 0.0000000 0.0000000
 0.0000000
*SECTION_SPH
         2 1.2000000
$
*RIGIDWALL_PLANAR                                                               
         0         0         1
 0.0000000 0.0000000 0.0000000 0.0000000 0.0000000 1.0000000 0.0000000
*DEFINE_BOX
         1-4.0000000 4.0000000-4.0000000 4.0000000 0.0000000 21.000000
*ELEMENT_SPH
       9       2      .44736E-02
      10       2      .44736E-02
      11       2      .44736E-02
    2008       2      .44736E-02
*NODE
     851     65.73999786            15.0             0.0                
     891     43.24100113             5.0             0.0                
*node
     891     43.24100113             5.0             0.0                
*END
